LTspice 24.0.12 for Windows
Circuit: * Z:\home\elagil\repo\loeti\hardware\switchmode.asc
Start Time: Thu Dec 12 22:15:45 2024
Warning: Multiple definitions of model "2scr375p" Type: BJT
Warning: Multiple definitions of model "bc857b" Type: BJT
Warning: Multiple definitions of model "bc847c" Type: BJT
Warning: Multiple definitions of model "bc847b" Type: BJT
solver = Normal
Maximum thread count: 16
tnom = 27
temp = 27
method = modified trap
Limiting rise time of source v2 to 2e-07
Limiting fall time of source v2 to 2e-07
Direct Newton iteration failed to find .op point.  (Use ".option noopiter" to skip.)
Starting Gmin stepping
Gmin = 10
Gmin = 1.07374
Gmin = 0.115292
Gmin = 0.0123794
Gmin = 0.00132923
vernier = 0.5
vernier = 0.25
vernier = 0.125
vernier = 0.0625
Gmin = 0.00100083
vernier = 0.03125
vernier = 0.015625
vernier = 0.0078125
vernier = 0.00390625
vernier = 0.00195312
Gmin = 0.00100083
vernier = 0.000976562
vernier = 0.000488281
Gmin = 0
Gmin stepping succeeded in finding the operating point.

Changing Tseed to 1.95313e-10
Heightened Def Con from 1.98715e-10 to 3.19872e-09
Heightened Def Con from 2.60512e-06 to 2.60812e-06
Heightened Def Con from 8.40504e-06 to 8.40804e-06
Heightened Def Con from 1.42046e-05 to 1.42086e-05
Heightened Def Con from 3.1604e-05 to 3.1607e-05
Heightened Def Con from 4.32037e-05 to 4.32077e-05
Heightened Def Con from 5.48035e-05 to 5.48075e-05
Heightened Def Con from 0.0001046 to 0.0001046
Heightened Def Con from 0.000118603 to 0.000118607
Heightened Def Con from 0.000159203 to 0.000159207
Heightened Def Con from 0.0001684 to 0.0001684
Heightened Def Con from 0.000176603 to 0.000176606
Heightened Def Con from 0.000321603 to 0.000321606
Heightened Def Con from 0.000350603 to 0.000350607
Heightened Def Con from 0.000388798 to 0.000388799
Heightened Def Con from 0.000388799 to 0.000388801
Heightened Def Con from 0.000414403 to 0.000414407
Heightened Def Con from 0.000420203 to 0.000420207
Heightened Def Con from 0.000431803 to 0.000431807
Heightened Def Con from 0.000443403 to 0.000443406
Heightened Def Con from 0.000493198 to 0.0004932
Heightened Def Con from 0.000522199 to 0.000522201
Heightened Def Con from 0.000539599 to 0.000539601
Heightened Def Con from 0.000547803 to 0.000547807
Heightened Def Con from 0.000553603 to 0.000553607
Heightened Def Con from 0.0006092 to 0.000609202
Heightened Def Con from 0.000623203 to 0.000623206
Heightened Def Con from 0.000638199 to 0.000638201
Heightened Def Con from 0.000646403 to 0.000646406
Heightened Def Con from 0.000652203 to 0.000652206
Heightened Def Con from 0.000663803 to 0.000663806
Heightened Def Con from 0.000675403 to 0.000675406
Heightened Def Con from 0.0007136 to 0.000713602
Heightened Def Con from 0.000721803 to 0.000721807
Heightened Def Con from 0.000768202 to 0.000768206
Heightened Def Con from 0.0007716 to 0.000771602
Heightened Def Con from 0.000774003 to 0.000774006
Heightened Def Con from 0.000785603 to 0.000785606
Heightened Def Con from 0.000794799 to 0.000794801
Heightened Def Con from 0.000814602 to 0.000814606
Heightened Def Con from 0.000832002 to 0.000832006
Heightened Def Con from 0.000861003 to 0.000861007
Heightened Def Con from 0.000866803 to 0.000866806
Heightened Def Con from 0.000890003 to 0.000890007
Heightened Def Con from 0.000976792 to 0.000976794
Heightened Def Con from 0.000992 to 0.000992002
Heightened Def Con from 0.001035 to 0.00103501
Heightened Def Con from 0.0010578 to 0.0010578
Heightened Def Con from 0.0010578 to 0.0010578
Heightened Def Con from 0.0010848 to 0.0010848
Heightened Def Con from 0.0010872 to 0.00108721
Heightened Def Con from 0.0010988 to 0.00109881
Heightened Def Con from 0.0011046 to 0.00110461
Heightened Def Con from 0.0011138 to 0.0011138
Heightened Def Con from 0.0011162 to 0.00111621
Heightened Def Con from 0.0011278 to 0.00112781
Heightened Def Con from 0.0011336 to 0.00113361
Heightened Def Con from 0.0011568 to 0.00115681
Heightened Def Con from 0.0011684 to 0.00116841
Heightened Def Con from 0.0011742 to 0.00117421
Heightened Def Con from 0.00118 to 0.00118001
Heightened Def Con from 0.001195 to 0.001195
Heightened Def Con from 0.0012438 to 0.00124381
Heightened Def Con from 0.0012496 to 0.00124961
Heightened Def Con from 0.0012612 to 0.00126121
Heightened Def Con from 0.0012704 to 0.0012704
Heightened Def Con from 0.001296 to 0.00129601
Heightened Def Con from 0.001354 to 0.00135401
Heightened Def Con from 0.0013598 to 0.00135981
Heightened Def Con from 0.0013714 to 0.00137141
Heightened Def Con from 0.0014038 to 0.0014038
Heightened Def Con from 0.001441 to 0.00144101
Heightened Def Con from 0.0014584 to 0.00145841
Heightened Def Con from 0.0014758 to 0.00147581
Heightened Def Con from 0.0015488 to 0.0015488
Heightened Def Con from 0.001586 to 0.00158601
Heightened Def Con from 0.0016498 to 0.00164981
Heightened Def Con from 0.0016556 to 0.00165561
Heightened Def Con from 0.0016672 to 0.00166721
Heightened Def Con from 0.001673 to 0.00167301
Heightened Def Con from 0.0016822 to 0.0016822
Heightened Def Con from 0.0017078 to 0.00170781
Heightened Def Con from 0.001731 to 0.00173101
Heightened Def Con from 0.0017658 to 0.00176581
Heightened Def Con from 0.0017948 to 0.00179481
Heightened Def Con from 0.001818 to 0.00181801
Heightened Def Con from 0.0018354 to 0.00183541
Heightened Def Con from 0.0018528 to 0.00185281
Heightened Def Con from 0.0019224 to 0.00192241
Heightened Def Con from 0.0019282 to 0.00192821
Heightened Def Con from 0.0019514 to 0.00195141
Total elapsed time: 6.313 seconds.

