LTspice 24.0.12 for Windows
Circuit: * Z:\home\elagil\repo\loeti\hardware\switchmode.asc
Start Time: Wed Dec  4 10:35:10 2024
Warning: Multiple definitions of model "2scr375p" Type: BJT
Warning: Multiple definitions of model "bc857b" Type: BJT
Warning: Multiple definitions of model "bc847c" Type: BJT
Warning: Multiple definitions of model "bc847b" Type: BJT
solver = Normal
Maximum thread count: 16
tnom = 27
temp = 27
method = modified trap
Limiting rise time of source v2 to 1.1e-06
Limiting fall time of source v2 to 1.1e-06
Direct Newton iteration failed to find .op point.  (Use ".option noopiter" to skip.)
Starting Gmin stepping
Gmin = 10
Gmin = 1.07374
Gmin = 0.115292
Gmin = 0.0123794
Gmin = 0.00132923
vernier = 0.5
vernier = 0.25
vernier = 0.125
vernier = 0.0625
Gmin = 0.00100083
vernier = 0.03125
vernier = 0.015625
vernier = 0.0078125
vernier = 0.00390625
vernier = 0.00195312
Gmin = 0.00100083
vernier = 0.000976562
vernier = 0.000488281
Gmin = 0
Gmin stepping succeeded in finding the operating point.

Heightened Def Con from 1.44193e-05 to 1.44223e-05
Heightened Def Con from 2.31156e-05 to 2.31186e-05
Heightened Def Con from 9.21159e-05 to 9.21189e-05
Heightened Def Con from 0.000106413 to 0.000106416
Heightened Def Con from 0.000198411 to 0.000198414
Heightened Def Con from 0.000290411 to 0.000290414
Heightened Def Con from 0.000299116 to 0.000299119
Heightened Def Con from 0.000438089 to 0.000438091
Heightened Def Con from 0.00047441 to 0.000474413
Heightened Def Con from 0.00075041 to 0.000750413
Heightened Def Con from 0.000759116 to 0.000759119
Heightened Def Con from 0.000851116 to 0.000851119
Heightened Def Con from 0.00088841 to 0.000888413
Heightened Def Con from 0.000966116 to 0.000966119
Heightened Def Con from 0.00101212 to 0.00101212
Heightened Def Con from 0.00105812 to 0.00105812
Heightened Def Con from 0.00109541 to 0.00109541
Heightened Def Con from 0.00114141 to 0.00114141
Heightened Def Con from 0.00116441 to 0.00116441
Heightened Def Con from 0.00123341 to 0.00123341
Heightened Def Con from 0.00130241 to 0.00130241
Heightened Def Con from 0.00134841 to 0.00134841
Heightened Def Con from 0.00137141 to 0.00137141
Heightened Def Con from 0.00148641 to 0.00148641
Heightened Def Con from 0.001518 +to 0.001518
Heightened Def Con from 0.001518 to 0.001518
Heightened Def Con from 0.00176241 to 0.00176241
Heightened Def Con from 0.00183141 to 0.00183141
Heightened Def Con from 0.00185441 to 0.00185441
Heightened Def Con from 0.00190041 to 0.00190041
Heightened Def Con from 0.00192341 to 0.00192341
Heightened Def Con from 0.00194641 to 0.00194641
Heightened Def Con from 0.00201541 to 0.00201541
Heightened Def Con from 0.00204712 to 0.00204712
Heightened Def Con from 0.00207012 to 0.00207012
Heightened Def Con from 0.00208441 to 0.00208441
Heightened Def Con from 0.00210741 to 0.00210741
Heightened Def Con from 0.00213041 to 0.00213041
Heightened Def Con from 0.00215341 to 0.00215341
Heightened Def Con from 0.00219941 to 0.00219941
Heightened Def Con from 0.00224541 to 0.00224541
Heightened Def Con from 0.00229141 to 0.00229141
Heightened Def Con from 0.00236041 to 0.00236041
Heightened Def Con from 0.00240641 to 0.00240641
Heightened Def Con from 0.00249841 to 0.00249841
Heightened Def Con from 0.00252141 to 0.00252141
Heightened Def Con from 0.00253012 to 0.00253012
Heightened Def Con from 0.00259912 to 0.00259912
Heightened Def Con from 0.00261341 to 0.00261341
Heightened Def Con from 0.00268241 to 0.00268241
Heightened Def Con from 0.00286641 to 0.00286641
Heightened Def Con from 0.00291241 to 0.00291241
Heightened Def Con from 0.00299012 to 0.00299012
Heightened Def Con from 0.00303612 to 0.00303612
Heightened Def Con from 0.00305041 to 0.00305041
Heightened Def Con from 0.00305912 to 0.00305912
Heightened Def Con from 0.00307341 to 0.00307341
Heightened Def Con from 0.00311941 to 0.00311941
Heightened Def Con from 0.00318707 to 0.00318707
Heightened Def Con from 0.00318841 to 0.00318841
Heightened Def Con from 0.00328041 to 0.00328041
Heightened Def Con from 0.00330341 to 0.00330341
Heightened Def Con from 0.00334941 to 0.00334941
Heightened Def Con from 0.00339541 to 0.00339541
Heightened Def Con from 0.00340412 to 0.00340412
Heightened Def Con from 0.00341841 to 0.00341841
Heightened Def Con from 0.00346441 to 0.00346441
Heightened Def Con from 0.00355641 to 0.00355641
Heightened Def Con from 0.00367141 to 0.00367141
Heightened Def Con from 0.00371741 to 0.00371741
Heightened Def Con from 0.00372612 to 0.00372612
Heightened Def Con from 0.00377212 to 0.00377212
Heightened Def Con from 0.00378641 to 0.00378641
Heightened Def Con from 0.00383241 to 0.00383241
Heightened Def Con from 0.00388712 to 0.00388712
Heightened Def Con from 0.00390141 to 0.00390141
Heightened Def Con from 0.00391012 to 0.00391012
Heightened Def Con from 0.00392441 to 0.00392441
Heightened Def Con from 0.00407112 to 0.00407112
Heightened Def Con from 0.00410841 to 0.00410841
Heightened Def Con from 0.00420041 to 0.00420041
Heightened Def Con from 0.00420912 to 0.00420912
Heightened Def Con from 0.00422341 to 0.00422341
Heightened Def Con from 0.00426941 to 0.00426941
Heightened Def Con from 0.00433841 to 0.00433841
Heightened Def Con from 0.00437 to 0.00437
Heightened Def Con from 0.00438441 to 0.00438441
Heightened Def Con from 0.00440741 to 0.00440741
Heightened Def Con from 0.00441612 to 0.00441612
Heightened Def Con from 0.00445341 to 0.00445341
Heightened Def Con from 0.00454541 to 0.00454541
Heightened Def Con from 0.00463741 to 0.00463741
Heightened Def Con from 0.00466912 to 0.00466912
Heightened Def Con from 0.00470641 to 0.00470641
Heightened Def Con from 0.00472941 to 0.00472941
Heightened Def Con from 0.00477541 to 0.00477541
Heightened Def Con from 0.00479841 to 0.00479841
Heightened Def Con from 0.00482141 to 0.00482141
Heightened Def Con from 0.00484441 to 0.00484441
Heightened Def Con from 0.00486741 to 0.00486741
Heightened Def Con from 0.00489912 to 0.00489912
Heightened Def Con from 0.00491341 to 0.00491341
Heightened Def Con from 0.00493641 to 0.00493641
Heightened Def Con from 0.00515212 to 0.00515212
Heightened Def Con from 0.00516642 to 0.00516643
Heightened Def Con from 0.00530441 to 0.00530441
Heightened Def Con from 0.00532742 to 0.00532742
Heightened Def Con from 0.00535912 to 0.00535912
Heightened Def Con from 0.00537341 to 0.00537341
Heightened Def Con from 0.00539641 to 0.00539641
Heightened Def Con from 0.00544241 to 0.00544241
Heightened Def Con from 0.00546541 to 0.00546541
Heightened Def Con from 0.00551141 to 0.00551141
Heightened Def Con from 0.00556612 to 0.00556612
Heightened Def Con from 0.00564941 to 0.00564941
Heightened Def Con from 0.00577312 to 0.00577312
Heightened Def Con from 0.00585641 to 0.00585641
Heightened Def Con from 0.00590241 to 0.00590241
Heightened Def Con from 0.00593412 to 0.00593412
Heightened Def Con from 0.00594841 to 0.00594841
Heightened Def Con from 0.00601741 to 0.00601741
Heightened Def Con from 0.00604041 to 0.00604041
Heightened Def Con from 0.00617841 to 0.00617841
Heightened Def Con from 0.00622441 to 0.00622441
Heightened Def Con from 0.00624741 to 0.00624741
Heightened Def Con from 0.00636241 to 0.00636241
Heightened Def Con from 0.00638541 to 0.00638541
Heightened Def Con from 0.00652341 to 0.00652341
Heightened Def Con from 0.00659241 to 0.00659241
Heightened Def Con from 0.00662412 to 0.00662412
Heightened Def Con from 0.00668441 to 0.00668441
Heightened Def Con from 0.00675341 to 0.00675341
Heightened Def Con from 0.0067762 to 0.0067762
Heightened Def Con from 0.00684541 to 0.00684541
Heightened Def Con from 0.00686841 to 0.00686841
Heightened Def Con from 0.00689141 to 0.00689141
Heightened Def Con from 0.00691441 to 0.00691441
Heightened Def Con from 0.00698341 to 0.00698341
Heightened Def Con from 0.00702941 to 0.00702941
Heightened Def Con from 0.00703812 to 0.00703812
Heightened Def Con from 0.00708412 to 0.00708412
Heightened Def Con from 0.00710712 to 0.00710712
Heightened Def Con from 0.00712141 to 0.00712141
Heightened Def Con from 0.00719041 to 0.00719041
Heightened Def Con from 0.00721207 to 0.00721207
Heightened Def Con from 0.00721341 to 0.00721341
Heightened Def Con from 0.00725941 to 0.00725941
Heightened Def Con from 0.00728241 to 0.00728241
Heightened Def Con from 0.00730541 to 0.00730541
Heightened Def Con from 0.00738312 to 0.00738312
Heightened Def Con from 0.00746641 to 0.00746641
Heightened Def Con from 0.00758141 to 0.00758141
Heightened Def Con from 0.00760441 to 0.00760441
Heightened Def Con from 0.00771942 to 0.00771942
Heightened Def Con from 0.00772812 to 0.00772812
Heightened Def Con from 0.00778841 to 0.00778841
Heightened Def Con from 0.00781141 to 0.00781141
Heightened Def Con from 0.00791212 to 0.00791212
Heightened Def Con from 0.00804141 to 0.00804141
Heightened Def Con from 0.00808741 to 0.00808741
Heightened Def Con from 0.00811912 to 0.00811912
Heightened Def Con from 0.00823412 to 0.00823412
Heightened Def Con from 0.00825712 to 0.00825712
Heightened Def Con from 0.00828012 to 0.00828012
Heightened Def Con from 0.00829441 to 0.00829441
Heightened Def Con from 0.00839512 to 0.00839512
Heightened Def Con from 0.00845541 to 0.00845541
Heightened Def Con from 0.00846412 to 0.00846412
Heightened Def Con from 0.00850141 to 0.00850141
Heightened Def Con from 0.00857041 to 0.00857041
Heightened Def Con from 0.00860212 to 0.00860212
Heightened Def Con from 0.00861641 to 0.00861641
Heightened Def Con from 0.00864812 to 0.00864812
Heightened Def Con from 0.00866241 to 0.00866241
Heightened Def Con from 0.00868541 to 0.00868541
Heightened Def Con from 0.00870841 to 0.00870841
Heightened Def Con from 0.00873141 to 0.00873141
Heightened Def Con from 0.00875441 to 0.00875441
Heightened Def Con from 0.00882341 to 0.00882341
Heightened Def Con from 0.00884641 to 0.00884641
Heightened Def Con from 0.00885512 to 0.00885512
Heightened Def Con from 0.00905341 to 0.00905341
Heightened Def Con from 0.00910812 to 0.00910812
Heightened Def Con from 0.00919141 to 0.00919141
Heightened Def Con from 0.00928341 to 0.00928341
Heightened Def Con from 0.00936112 to 0.00936112
Heightened Def Con from 0.00937541 to 0.00937541
Heightened Def Con from 0.00939841 to 0.00939841
Heightened Def Con from 0.00942141 to 0.00942141
Heightened Def Con from 0.00949041 to 0.00949041
Heightened Def Con from 0.00952212 to 0.00952212
Heightened Def Con from 0.00956812 to 0.00956812
Heightened Def Con from 0.0096742 to 0.0096742
Heightened Def Con from 0.00970612 to 0.00970612
Heightened Def Con from 0.00972912 to 0.00972912
Heightened Def Con from 0.00978941 to 0.00978941
Heightened Def Con from 0.00982112 to 0.00982112
Heightened Def Con from 0.00984412 to 0.00984412
Heightened Def Con from 0.00986712 to 0.00986712
Heightened Def Con from 0.00997341 to 0.00997341
Total elapsed time: 13.991 seconds.

