Circuit: * D:\git\electronics\loeti\hardware\switchmode.asc

Limiting rise time of source v2 to 1.2e-006
Limiting fall time of source v2 to 1.2e-006
Direct Newton iteration failed to find .op point.  (Use ".option noopiter" to skip.)
Starting Gmin stepping
Gmin = 10
Gmin = 1.07374
Gmin = 0.115292
Gmin = 0.0123794
Gmin = 0.00132923
vernier = 0.5
vernier = 0.25
vernier = 0.125
vernier = 0.0625
Gmin = 0.00100083
vernier = 0.03125
vernier = 0.015625
vernier = 0.0078125
vernier = 0.00390625
vernier = 0.00195313
Gmin = 0.00100083
vernier = 0.000976563
vernier = 0.000488281
Gmin = 0
Gmin stepping succeeded in finding the operating point.

Heightened Def Con from 0.000439393 to 0.000439395
Heightened Def Con from 0.0004632 to 0.0004632
Heightened Def Con from 0.00176317 to 0.00176318
Heightened Def Con from 0.0032762 to 0.0032762
Heightened Def Con from 0.003975 to 0.003975
Heightened Def Con from 0.00443937 to 0.00443938

Date: Thu May 06 22:26:49 2021
Total elapsed time: 11.034 seconds.

tnom = 27
temp = 27
method = modified trap
totiter = 581949
traniter = 580419
tranpoints = 162358
accept = 113174
rejected = 49190
matrix size = 157
fillins = 274
solver = Normal
Thread vector: 12.7/8.0[2] 4.6/3.0[2] 3.4/1.9[2] 0.6/0.8[1]  2592/500
Matrix Compiler1: 27.61 KB object code size  5.6/2.9/[1.7]
Matrix Compiler2: 18.42 KB object code size  2.5/2.7/[1.2]

