Circuit: * D:\git\electronics\loeti\hardware\switchmode.asc

Limiting rise time of source v2 to 1.1e-006
Limiting fall time of source v2 to 1.1e-006
Direct Newton iteration failed to find .op point.  (Use ".option noopiter" to skip.)
Starting Gmin stepping
Gmin = 10
Gmin = 1.07374
Gmin = 0.115292
Gmin = 0.0123794
Gmin = 0.00132923
vernier = 0.5
vernier = 0.25
vernier = 0.125
vernier = 0.0625
Gmin = 0.00100083
vernier = 0.03125
vernier = 0.015625
vernier = 0.0078125
vernier = 0.00390625
vernier = 0.00195313
Gmin = 0.00100083
vernier = 0.000976563
vernier = 0.000488281
Gmin = 0
Gmin stepping succeeded in finding the operating point.

Heightened Def Con from 1.44811e-005 to 1.44851e-005
Heightened Def Con from 3.74786e-005 to 3.74826e-005
Heightened Def Con from 6.04767e-005 to 6.04807e-005
Heightened Def Con from 8.34751e-005 to 8.34801e-005
Heightened Def Con from 0.000106475 to 0.000106479
Heightened Def Con from 0.000129474 to 0.000129478
Heightened Def Con from 0.000152473 to 0.000152478
Heightened Def Con from 0.000175472 to 0.000175476
Heightened Def Con from 0.000198472 to 0.000198476
Heightened Def Con from 0.000221472 to 0.000221476
Heightened Def Con from 0.000244472 to 0.000244476
Heightened Def Con from 0.000267471 to 0.000267476
Heightened Def Con from 0.000290471 to 0.000290476
Heightened Def Con from 0.000313471 to 0.000313476
Heightened Def Con from 0.000336471 to 0.000336475
Heightened Def Con from 0.000359471 to 0.000359476
Heightened Def Con from 0.000405471 to 0.000405475
Heightened Def Con from 0.000428471 to 0.000428476
Heightened Def Con from 0.000451471 to 0.000451475
Heightened Def Con from 0.000474471 to 0.000474475
Heightened Def Con from 0.000497471 to 0.000497475
Heightened Def Con from 0.000520471 to 0.000520476
Heightened Def Con from 0.000566471 to 0.000566476
Heightened Def Con from 0.000576083 to 0.000576084
Heightened Def Con from 0.000589471 to 0.000589476
Heightened Def Con from 0.000612471 to 0.000612476
Heightened Def Con from 0.000635471 to 0.000635475
Heightened Def Con from 0.000635475 to 0.000635478
Heightened Def Con from 0.000658471 to 0.000658475
Heightened Def Con from 0.000681471 to 0.000681476
Heightened Def Con from 0.000704471 to 0.000704475
Heightened Def Con from 0.000727471 to 0.000727476
Heightened Def Con from 0.000750471 to 0.000750476
Heightened Def Con from 0.000773471 to 0.000773476
Heightened Def Con from 0.000796471 to 0.000796476
Heightened Def Con from 0.000819471 to 0.000819475
Heightened Def Con from 0.000842471 to 0.000842476
Heightened Def Con from 0.000865471 to 0.000865476
Heightened Def Con from 0.000888471 to 0.000888476
Heightened Def Con from 0.000911471 to 0.000911476
Heightened Def Con from 0.000957471 to 0.000957476
Heightened Def Con from 0.000980471 to 0.000980476

Date: Thu May 13 22:42:49 2021
Total elapsed time: 2.693 seconds.

tnom = 27
temp = 27
method = modified trap
totiter = 137173
traniter = 135643
tranpoints = 35969
accept = 25149
rejected = 10862
matrix size = 157
fillins = 276
solver = Normal
Thread vector: 12.7/8.2[2] 5.0/3.5[2] 3.6/1.9[2] 0.5/0.8[1]  2592/500
Matrix Compiler1: 27.63 KB object code size  5.9/2.8/[1.7]
Matrix Compiler2: 18.47 KB object code size  2.6/2.6/[1.3]

