Circuit: * C:\Users\x\repo\development\loeti\hardware\switchmode.asc

Limiting rise time of source v2 to 2.5e-006
Limiting fall time of source v2 to 2.5e-006
Direct Newton iteration failed to find .op point.  (Use ".option noopiter" to skip.)
Starting Gmin stepping
Gmin = 10
Gmin = 1.07374
vernier = 0.5
vernier = 0.25
vernier = 0.125
vernier = 0.0625
Gmin = 1.08884
vernier = 0.03125
vernier = 0.015625
Gmin = 1.03122
vernier = 0.0078125
vernier = 0.00390625
Gmin = 1.01823
vernier = 0.00520833
vernier = 0.00260417
Gmin = 1.01162
vernier = 0.00347222
vernier = 0.00173611
vernier = 0.00231481
vernier = 0.00115741
Gmin = 1.00877
vernier = 0.00154321
vernier = 0.000771604
Gmin = 1.00673
vernier = 0.00102881
vernier = 0.000514403
vernier = 0.00068587
Gmin = 1.00553
vernier = 0.000514403
vernier = 0.00068587
vernier = 0.000514402
Gmin = 1.00471
Gmin = 0
Gmin stepping failed

Starting source stepping with srcstepmethod=0
Source Step = 3.0303%
Source Step = 33.3333%
Source Step = 63.6364%
Source Step = 93.9394%
Source stepping succeeded in finding the operating point.


Date: Tue May 26 23:21:54 2020
Total elapsed time: 11.340 seconds.

tnom = 27
temp = 27
method = modified trap
totiter = 379434
traniter = 373431
tranpoints = 111134
accept = 78734
rejected = 32400
matrix size = 158
fillins = 209
solver = Normal
Thread vector: 12.9/8.0[2] 10.7/7.8[2] 5.0/4.9[1] 0.5/0.8[1]  2592/500
Matrix Compiler1: 22.57 KB object code size  6.0/2.7/[1.7]
Matrix Compiler2: 17.42 KB object code size  2.6/2.5/[1.2]

