LTspice 24.0.12 for Windows
Circuit: * Z:\home\elagil\repo\loeti\hardware\switchmode.asc
Start Time: Sat Jan 11 22:47:14 2025
Warning: Multiple definitions of model "2scr375p" Type: BJT
Warning: Multiple definitions of model "bc857b" Type: BJT
Warning: Multiple definitions of model "bc847c" Type: BJT
Warning: Multiple definitions of model "bc847b" Type: BJT
solver = Normal
Maximum thread count: 16
tnom = 27
temp = 27
method = modified trap
Limiting rise time of source v2 to 2e-07
Limiting fall time of source v2 to 2e-07
Direct Newton iteration failed to find .op point.  (Use ".option noopiter" to skip.)
Starting Gmin stepping
Gmin = 10
Gmin = 1.07374
Gmin = 0.115292
Gmin = 0.0123794
Gmin = 0.00132923
vernier = 0.5
vernier = 0.25
vernier = 0.125
vernier = 0.0625
Gmin = 0.00100083
vernier = 0.03125
vernier = 0.015625
vernier = 0.0078125
vernier = 0.00390625
vernier = 0.00195312
Gmin = 0.00100083
vernier = 0.000976562
vernier = 0.000488281
Gmin = 0
Gmin stepping succeeded in finding the operating point.

Heightened Def Con from 8.40073e-06 to 8.40373e-06
Heightened Def Con from 1.41991e-05 to 1.42021e-05
Heightened Def Con from 3.16043e-05 to 3.16073e-05
Heightened Def Con from 6.98e-05 to 6.9802e-05
Heightened Def Con from 7.80027e-05 to 7.80057e-05
Heightened Def Con from 8.38027e-05 to 8.38057e-05
Heightened Def Con from 8.96032e-05 to 8.96062e-05
Heightened Def Con from 9.54031e-05 to 9.54061e-05
Heightened Def Con from 0.000101203 to 0.000101207
Heightened Def Con from 0.000107005 to 0.000107008
Heightened Def Con from 0.000112804 to 0.000112808
Heightened Def Con from 0.000118604 to 0.000118607
Heightened Def Con from 0.000124406 to 0.000124409
Heightened Def Con from 0.000136003 to 0.000136007
Heightened Def Con from 0.000147603 to 0.000147606
Heightened Def Con from 0.000153404 to 0.000153407
Heightened Def Con from 0.000159203 to 0.000159207
Heightened Def Con from 0.000165003 to 0.000165007
Heightened Def Con from 0.0001684 to 0.0001684
Heightened Def Con from 0.000176605 to 0.000176608
Heightened Def Con from 0.000182403 to 0.000182407
Heightened Def Con from 0.0001858 to 0.0001858
Heightened Def Con from 0.000188203 to 0.000188206
Heightened Def Con from 0.000197399 to 0.0001974
Heightened Def Con from 0.000205603 to 0.000205607
Heightened Def Con from 0.000223003 to 0.000223007
Heightened Def Con from 0.000228803 to 0.000228807
Heightened Def Con from 0.000238 to 0.000238
Heightened Def Con from 0.000240404 to 0.000240407
Heightened Def Con from 0.000246203 to 0.000246207
Heightened Def Con from 0.000252003 to 0.000252007
Heightened Def Con from 0.000257803 to 0.000257807
Heightened Def Con from 0.000269403 to 0.000269407
Heightened Def Con from 0.000275204 to 0.000275207
Heightened Def Con from 0.000281003 to 0.000281007
Heightened Def Con from 0.0002844 to 0.000284402
Heightened Def Con from 0.000286804 to 0.000286807
Heightened Def Con from 0.000292604 to 0.000292607
Heightened Def Con from 0.000298403 to 0.000298406
Heightened Def Con from 0.000304204 to 0.000304207
Heightened Def Con from 0.000310003 to 0.000310007
Heightened Def Con from 0.000315803 to 0.000315807
Heightened Def Con from 0.000321603 to 0.000321607
Heightened Def Con from 0.000327403 to 0.000327407
Heightened Def Con from 0.000333203 to 0.000333206
Heightened Def Con from 0.000339003 to 0.000339007
Heightened Def Con from 0.000344805 to 0.000344808
Heightened Def Con from 0.000350605 to 0.000350608
Heightened Def Con from 0.000356403 to 0.000356407
Heightened Def Con from 0.000368003 to 0.000368007
Heightened Def Con from 0.000373804 to 0.000373807
Heightened Def Con from 0.000385403 to 0.000385407
Heightened Def Con from 0.000391203 to 0.000391207
Heightened Def Con from 0.000397003 to 0.000397006
Heightened Def Con from 0.000402805 to 0.000402808
Heightened Def Con from 0.000408604 to 0.000408607
Heightened Def Con from 0.000412 to 0.000412002
Heightened Def Con from 0.000414403 to 0.000414407
Heightened Def Con from 0.000420203 to 0.000420207
Heightened Def Con from 0.000426004 to 0.000426007
Heightened Def Con from 0.000429399 to 0.000429401
Heightened Def Con from 0.000437603 to 0.000437607
Heightened Def Con from 0.000455003 to 0.000455007
Heightened Def Con from 0.000460803 to 0.000460807
Heightened Def Con from 0.000466603 to 0.000466607
Heightened Def Con from 0.000472403 to 0.000472406
Heightened Def Con from 0.000484003 to 0.000484007
Heightened Def Con from 0.000495603 to 0.000495607
Heightened Def Con from 0.000507203 to 0.000507207
Heightened Def Con from 0.000513004 to 0.000513007
Heightened Def Con from 0.000518803 to 0.000518807
Heightened Def Con from 0.000524604 to 0.000524607
Heightened Def Con from 0.000530403 to 0.000530407
Heightened Def Con from 0.000536203 to 0.000536207
Heightened Def Con from 0.000542004 to 0.000542007
Heightened Def Con from 0.000553603 to 0.000553607
Heightened Def Con from 0.000557 to 0.000557002
Heightened Def Con from 0.000559403 to 0.000559407
Heightened Def Con from 0.000565203 to 0.000565207
Heightened Def Con from 0.0005686 to 0.000568602
Heightened Def Con from 0.000576804 to 0.000576807
Heightened Def Con from 0.0005802 to 0.000580202
Heightened Def Con from 0.000588403 to 0.000588407
Heightened Def Con from 0.000594203 to 0.000594206
Heightened Def Con from 0.000600004 to 0.000600007
Heightened Def Con from 0.000611603 to 0.000611607
Heightened Def Con from 0.000620797 to 0.0006208
Heightened Def Con from 0.000623205 to 0.000623208
Heightened Def Con from 0.000626599 to 0.000626601
Heightened Def Con from 0.000634804 to 0.000634807
Heightened Def Con from 0.000640603 to 0.000640607
Heightened Def Con from 0.000649799 to 0.000649801
Heightened Def Con from 0.000652204 to 0.000652207
Heightened Def Con from 0.000663804 to 0.000663807
Heightened Def Con from 0.000669605 to 0.000669608
Heightened Def Con from 0.000675403 to 0.000675407
Heightened Def Con from 0.000681203 to 0.000681207
Heightened Def Con from 0.000698603 to 0.000698606
Heightened Def Con from 0.000704403 to 0.000704407
Heightened Def Con from 0.000710205 to 0.000710208
Heightened Def Con from 0.000716004 to 0.000716007
Heightened Def Con from 0.000719399 to 0.000719401
Heightened Def Con from 0.000727604 to 0.000727607
Heightened Def Con from 0.000739205 to 0.000739208
Heightened Def Con from 0.000745003 to 0.000745007
Heightened Def Con from 0.000750803 to 0.000750807
Heightened Def Con from 0.000762403 to 0.000762407
Heightened Def Con from 0.000768205 to 0.000768208
Heightened Def Con from 0.000774005 to 0.000774008
Heightened Def Con from 0.000785604 to 0.000785607
Heightened Def Con from 0.000803003 to 0.000803006
Heightened Def Con from 0.000806399 to 0.000806401
Heightened Def Con from 0.000808803 to 0.000808807
Heightened Def Con from 0.000814605 to 0.000814608
Heightened Def Con from 0.000820405 to 0.000820408
Heightened Def Con from 0.000826203 to 0.000826207
Heightened Def Con from 0.000832004 to 0.000832007
Heightened Def Con from 0.000837803 to 0.000837807
Heightened Def Con from 0.000841199 to 0.000841201
Heightened Def Con from 0.000843603 to 0.000843607
Heightened Def Con from 0.000849403 to 0.000849407
Heightened Def Con from 0.000855203 to 0.000855207
Heightened Def Con from 0.000861004 to 0.000861007
Heightened Def Con from 0.000866804 to 0.000866807
Heightened Def Con from 0.000872603 to 0.000872607
Heightened Def Con from 0.000878404 to 0.000878407
Heightened Def Con from 0.000884204 to 0.000884207
Heightened Def Con from 0.0008876 to 0.000887602
Heightened Def Con from 0.000890003 to 0.000890007
Heightened Def Con from 0.000901603 to 0.000901607
Heightened Def Con from 0.000907403 to 0.000907407
Heightened Def Con from 0.000919003 to 0.000919006
Heightened Def Con from 0.000924803 to 0.000924807
Heightened Def Con from 0.000930603 to 0.000930606
Heightened Def Con from 0.000936403 to 0.000936407
Heightened Def Con from 0.000942204 to 0.000942207
Heightened Def Con from 0.000953805 to 0.000953808
Heightened Def Con from 0.000957199 to 0.000957201
Heightened Def Con from 0.000959603 to 0.000959607
Heightened Def Con from 0.000965403 to 0.000965407
Heightened Def Con from 0.000977003 to 0.000977007
Heightened Def Con from 0.000982805 to 0.000982808
Heightened Def Con from 0.000988603 to 0.000988607
Heightened Def Con from 0.000994403 to 0.000994406
Heightened Def Con from 0.0010002 to 0.00100021
Heightened Def Con from 0.001006 to 0.00100601
Heightened Def Con from 0.0010118 to 0.00101181
Heightened Def Con from 0.0010152 to 0.0010152
Heightened Def Con from 0.0010176 to 0.00101761
Heightened Def Con from 0.0010234 to 0.00102341
Heightened Def Con from 0.0010292 to 0.00102921
Heightened Def Con from 0.001035 to 0.00103501
Heightened Def Con from 0.0010408 to 0.00104081
Heightened Def Con from 0.0010524 to 0.00105241
Heightened Def Con from 0.0010582 to 0.00105821
Heightened Def Con from 0.001064 to 0.00106401
Heightened Def Con from 0.0010756 to 0.00107561
Heightened Def Con from 0.0010814 to 0.00108141
Heightened Def Con from 0.0010988 to 0.00109881
Heightened Def Con from 0.0011046 to 0.00110461
Heightened Def Con from 0.0011104 to 0.00111041
Heightened Def Con from 0.0011162 to 0.00111621
Heightened Def Con from 0.001122 to 0.00112201
Heightened Def Con from 0.0011278 to 0.00112781
Heightened Def Con from 0.0011336 to 0.00113361
Heightened Def Con from 0.0011394 to 0.00113941
Heightened Def Con from 0.0011452 to 0.00114521
Heightened Def Con from 0.0011568 to 0.00115681
Heightened Def Con from 0.0011626 to 0.00116261
Heightened Def Con from 0.0011684 to 0.00116841
Heightened Def Con from 0.00118 to 0.00118001
Heightened Def Con from 0.0011858 to 0.00118581
Heightened Def Con from 0.0011916 to 0.00119161
Heightened Def Con from 0.0011974 to 0.00119741
Heightened Def Con from 0.0012032 to 0.00120321
Heightened Def Con from 0.0012148 to 0.00121481
Heightened Def Con from 0.0012206 to 0.00122061
Heightened Def Con from 0.0012264 to 0.00122641
Heightened Def Con from 0.00123198 to 0.00123198
Heightened Def Con from 0.0012322 to 0.00123221
Heightened Def Con from 0.001238 to 0.00123801
Heightened Def Con from 0.0012438 to 0.00124381
Heightened Def Con from 0.0012496 to 0.00124961
Heightened Def Con from 0.0012554 to 0.00125541
Heightened Def Con from 0.0012728 to 0.00127281
Heightened Def Con from 0.0012844 to 0.00128441
Heightened Def Con from 0.0012902 to 0.00129021
Heightened Def Con from 0.001296 to 0.00129601
Heightened Def Con from 0.0013018 to 0.00130181
Heightened Def Con from 0.0013076 to 0.00130761
Heightened Def Con from 0.0013134 to 0.00131341
Heightened Def Con from 0.0013192 to 0.00131921
Heightened Def Con from 0.001325 to 0.00132501
Heightened Def Con from 0.0013308 to 0.00133081
Heightened Def Con from 0.0013342 to 0.0013342
Heightened Def Con from 0.0013366 to 0.00133661
Heightened Def Con from 0.0013424 to 0.00134241
Heightened Def Con from 0.0013482 to 0.00134821
Heightened Def Con from 0.001354 to 0.00135401
Heightened Def Con from 0.0013598 to 0.00135981
Heightened Def Con from 0.0013656 to 0.00136561
Heightened Def Con from 0.0013772 to 0.00137721
Heightened Def Con from 0.001383 to 0.00138301
Heightened Def Con from 0.0013888 to 0.00138881
Heightened Def Con from 0.0014004 to 0.00140041
Heightened Def Con from 0.0014062 to 0.00140621
Heightened Def Con from 0.001412 to 0.00141201
Heightened Def Con from 0.0014178 to 0.00141781
Heightened Def Con from 0.0014236 to 0.00142361
Heightened Def Con from 0.0014294 to 0.00142941
Heightened Def Con from 0.0014352 to 0.00143521
Heightened Def Con from 0.001441 to 0.00144101
Heightened Def Con from 0.0014468 to 0.00144681
Heightened Def Con from 0.0014642 to 0.00146421
Heightened Def Con from 0.00147 to 0.00147001
Heightened Def Con from 0.0014758 to 0.00147581
Heightened Def Con from 0.0014816 to 0.00148161
Heightened Def Con from 0.0014874 to 0.00148741
Heightened Def Con from 0.0014932 to 0.00149321
Heightened Def Con from 0.001499 to 0.00149901
Heightened Def Con from 0.0015048 to 0.00150481
Heightened Def Con from 0.0015106 to 0.00151061
Heightened Def Con from 0.0015164 to 0.00151641
Heightened Def Con from 0.0015222 to 0.00152221
Heightened Def Con from 0.001528 to 0.00152801
Heightened Def Con from 0.0015396 to 0.00153961
Heightened Def Con from 0.0015454 to 0.00154541
Heightened Def Con from 0.0015512 to 0.00155121
Heightened Def Con from 0.001557 to 0.00155701
Heightened Def Con from 0.0015744 to 0.00157441
Heightened Def Con from 0.001586 to 0.00158601
Heightened Def Con from 0.0015918 to 0.00159181
Heightened Def Con from 0.0015976 to 0.00159761
Heightened Def Con from 0.0016092 to 0.00160921
Heightened Def Con from 0.0016184 to 0.0016184
Heightened Def Con from 0.0016208 to 0.00162081
Heightened Def Con from 0.0016324 to 0.00163241
Heightened Def Con from 0.0016382 to 0.00163821
Heightened Def Con from 0.001644 to 0.00164401
Heightened Def Con from 0.0016498 to 0.00164981
Heightened Def Con from 0.0016556 to 0.00165561
Heightened Def Con from 0.0016614 to 0.00166141
Heightened Def Con from 0.0016672 to 0.00166721
Heightened Def Con from 0.001673 to 0.00167301
Heightened Def Con from 0.0016788 to 0.00167881
Heightened Def Con from 0.0016846 to 0.00168461
Heightened Def Con from 0.0016904 to 0.00169041
Heightened Def Con from 0.0016962 to 0.00169621
Heightened Def Con from 0.001702 to 0.00170201
Heightened Def Con from 0.0017078 to 0.00170781
Heightened Def Con from 0.0017136 to 0.00171361
Heightened Def Con from 0.0017194 to 0.00171941
Heightened Def Con from 0.001731 to 0.00173101
Heightened Def Con from 0.0017368 to 0.00173681
Heightened Def Con from 0.0017426 to 0.00174261
Heightened Def Con from 0.0017484 to 0.00174841
Heightened Def Con from 0.0017542 to 0.00175421
Heightened Def Con from 0.00176 to 0.00176001
Heightened Def Con from 0.0017658 to 0.00176581
Heightened Def Con from 0.0017716 to 0.00177161
Heightened Def Con from 0.0017774 to 0.00177741
Heightened Def Con from 0.0017832 to 0.00178321
Heightened Def Con from 0.0017948 to 0.00179481
Heightened Def Con from 0.0018064 to 0.00180641
Heightened Def Con from 0.0018214 to 0.0018214
Heightened Def Con from 0.0018238 to 0.00182381
Heightened Def Con from 0.0018296 to 0.00182961
Heightened Def Con from 0.0018354 to 0.00183541
Heightened Def Con from 0.0018412 to 0.00184121
Heightened Def Con from 0.0018528 to 0.00185281
Heightened Def Con from 0.0018586 to 0.00185861
Heightened Def Con from 0.0018644 to 0.00186441
Heightened Def Con from 0.0018678 to 0.0018678
Heightened Def Con from 0.0018702 to 0.00187021
Heightened Def Con from 0.001876 to 0.00187601
Heightened Def Con from 0.0018818 to 0.00188181
Heightened Def Con from 0.0018876 to 0.00188761
Heightened Def Con from 0.0018934 to 0.00189341
Heightened Def Con from 0.0018992 to 0.00189921
Heightened Def Con from 0.001905 to 0.00190501
Heightened Def Con from 0.0019108 to 0.00191081
Heightened Def Con from 0.0019166 to 0.00191661
Heightened Def Con from 0.0019224 to 0.00192241
Heightened Def Con from 0.0019282 to 0.00192821
Heightened Def Con from 0.0019456 to 0.00194561
Heightened Def Con from 0.0019514 to 0.00195141
Heightened Def Con from 0.0019572 to 0.00195721
Heightened Def Con from 0.001963 to 0.00196301
Heightened Def Con from 0.0019804 to 0.00198041
Heightened Def Con from 0.0019862 to 0.00198621
Heightened Def Con from 0.0019896 to 0.0019896
Heightened Def Con from 0.001992 to 0.00199201
Heightened Def Con from 0.0019978 to 0.00199781
Heightened Def Con from 0.0020036 to 0.00200361
Heightened Def Con from 0.0020094 to 0.00200941
Heightened Def Con from 0.002021 to 0.00202101
Heightened Def Con from 0.0020268 to 0.00202681
Heightened Def Con from 0.0020384 to 0.00203841
Heightened Def Con from 0.0020418 to 0.0020418
Heightened Def Con from 0.0020442 to 0.00204421
Heightened Def Con from 0.00205 to 0.00205001
Heightened Def Con from 0.0020558 to 0.00205581
Heightened Def Con from 0.0020616 to 0.00206161
Heightened Def Con from 0.00206719 to 0.0020672
Heightened Def Con from 0.0020674 to 0.00206741
Heightened Def Con from 0.0020732 to 0.00207321
Heightened Def Con from 0.002079 to 0.00207901
Heightened Def Con from 0.0020848 to 0.00208481
Heightened Def Con from 0.0020906 to 0.00209061
Heightened Def Con from 0.0020964 to 0.00209641
Heightened Def Con from 0.0021022 to 0.00210221
Heightened Def Con from 0.002108 to 0.00210801
Heightened Def Con from 0.0021138 to 0.00211381
Heightened Def Con from 0.0021254 to 0.00212541
Heightened Def Con from 0.0021312 to 0.00213121
Heightened Def Con from 0.002137 to 0.00213701
Heightened Def Con from 0.0021428 to 0.00214281
Heightened Def Con from 0.0021544 to 0.00215441
Heightened Def Con from 0.0021602 to 0.00216021
Heightened Def Con from 0.002166 to 0.00216601
Heightened Def Con from 0.0021718 to 0.00217181
Heightened Def Con from 0.0021776 to 0.00217761
Heightened Def Con from 0.0021834 to 0.00218341
Heightened Def Con from 0.002195 to 0.00219501
Heightened Def Con from 0.0022008 to 0.00220081
Heightened Def Con from 0.0022066 to 0.00220661
Heightened Def Con from 0.0022124 to 0.00221241
Heightened Def Con from 0.0022182 to 0.00221821
Heightened Def Con from 0.002224 to 0.00222401
Heightened Def Con from 0.0022356 to 0.00223561
Heightened Def Con from 0.0022588 to 0.00225881
Heightened Def Con from 0.0022646 to 0.00226461
Heightened Def Con from 0.0022704 to 0.00227041
Heightened Def Con from 0.0022762 to 0.00227621
Heightened Def Con from 0.0022878 to 0.00228781
Heightened Def Con from 0.0022936 to 0.00229361
Heightened Def Con from 0.0022994 to 0.00229941
Heightened Def Con from 0.002311 to 0.00231101
Heightened Def Con from 0.0023168 to 0.00231681
Heightened Def Con from 0.0023226 to 0.00232261
Heightened Def Con from 0.002326 to 0.002326
Heightened Def Con from 0.0023284 to 0.00232841
Heightened Def Con from 0.0023342 to 0.00233421
Heightened Def Con from 0.00234 to 0.00234001
Heightened Def Con from 0.0023516 to 0.00235161
Heightened Def Con from 0.0023574 to 0.00235741
Heightened Def Con from 0.0023632 to 0.00236321
Heightened Def Con from 0.002369 to 0.00236901
Heightened Def Con from 0.0023864 to 0.00238641
Heightened Def Con from 0.0023898 to 0.0023898
Heightened Def Con from 0.0023922 to 0.00239221
Heightened Def Con from 0.002398 to 0.00239801
Heightened Def Con from 0.0024038 to 0.00240381
Heightened Def Con from 0.0024096 to 0.00240961
Heightened Def Con from 0.0024154 to 0.00241541
Heightened Def Con from 0.002427 to 0.00242701
Heightened Def Con from 0.0024328 to 0.00243281
Heightened Def Con from 0.0024444 to 0.00244441
Heightened Def Con from 0.0024502 to 0.00245021
Heightened Def Con from 0.002456 to 0.00245601
Heightened Def Con from 0.0024618 to 0.00246181
Heightened Def Con from 0.0024676 to 0.00246761
Heightened Def Con from 0.0024734 to 0.00247341
Heightened Def Con from 0.0024792 to 0.00247921
Heightened Def Con from 0.002485 to 0.00248501
Heightened Def Con from 0.0024884 to 0.0024884
Heightened Def Con from 0.0024908 to 0.00249081
Heightened Def Con from 0.0024966 to 0.00249661
Heightened Def Con from 0.0025024 to 0.00250241
Heightened Def Con from 0.0025082 to 0.00250821
Heightened Def Con from 0.002514 to 0.00251401
Heightened Def Con from 0.0025198 to 0.00251981
Heightened Def Con from 0.0025256 to 0.00252561
Heightened Def Con from 0.0025314 to 0.00253141
Heightened Def Con from 0.00253699 to 0.002537
Heightened Def Con from 0.0025372 to 0.00253721
Heightened Def Con from 0.002543 to 0.00254301
Heightened Def Con from 0.0025488 to 0.00254881
Heightened Def Con from 0.0025522 to 0.0025522
Heightened Def Con from 0.0025662 to 0.00256621
Heightened Def Con from 0.002572 to 0.00257201
Heightened Def Con from 0.0025778 to 0.00257781
Heightened Def Con from 0.0025894 to 0.00258941
Heightened Def Con from 0.0025952 to 0.00259521
Heightened Def Con from 0.002601 to 0.00260101
Heightened Def Con from 0.0026068 to 0.00260681
Heightened Def Con from 0.0026126 to 0.00261261
Heightened Def Con from 0.0026184 to 0.00261841
Heightened Def Con from 0.0026242 to 0.00262421
Heightened Def Con from 0.00263 to 0.00263001
Heightened Def Con from 0.0026358 to 0.00263581
Heightened Def Con from 0.0026416 to 0.00264161
Heightened Def Con from 0.0026474 to 0.00264741
Heightened Def Con from 0.0026532 to 0.00265321
Heightened Def Con from 0.002659 to 0.00265901
Heightened Def Con from 0.0026648 to 0.00266481
Heightened Def Con from 0.0026706 to 0.00267061
Heightened Def Con from 0.0026764 to 0.00267641
Heightened Def Con from 0.002688 to 0.00268801
Heightened Def Con from 0.0026938 to 0.00269381
Heightened Def Con from 0.0026996 to 0.00269961
Heightened Def Con from 0.0027054 to 0.00270541
Heightened Def Con from 0.0027112 to 0.00271121
Heightened Def Con from 0.0027146 to 0.0027146
Heightened Def Con from 0.002717 to 0.00271701
Heightened Def Con from 0.0027228 to 0.00272281
Heightened Def Con from 0.0027344 to 0.00273441
Heightened Def Con from 0.002746 to 0.00274601
Heightened Def Con from 0.0027518 to 0.00275181
Heightened Def Con from 0.0027576 to 0.00275761
Heightened Def Con from 0.0027692 to 0.00276921
Heightened Def Con from 0.002775 to 0.00277501
Heightened Def Con from 0.0027808 to 0.00278081
Heightened Def Con from 0.0027866 to 0.00278661
Heightened Def Con from 0.0027924 to 0.00279241
Heightened Def Con from 0.0027982 to 0.00279821
Heightened Def Con from 0.002804 to 0.00280401
Heightened Def Con from 0.0028098 to 0.00280981
Heightened Def Con from 0.0028156 to 0.00281561
Heightened Def Con from 0.0028214 to 0.00282141
Heightened Def Con from 0.0028272 to 0.00282721
Heightened Def Con from 0.0028364 to 0.0028364
Heightened Def Con from 0.0028446 to 0.00284461
Heightened Def Con from 0.0028504 to 0.00285041
Heightened Def Con from 0.002862 to 0.00286201
Heightened Def Con from 0.0028678 to 0.00286781
Heightened Def Con from 0.0028736 to 0.00287361
Heightened Def Con from 0.0028794 to 0.00287941
Heightened Def Con from 0.0028852 to 0.00288521
Heightened Def Con from 0.002891 to 0.00289101
Heightened Def Con from 0.0028968 to 0.00289681
Heightened Def Con from 0.0029026 to 0.00290261
Heightened Def Con from 0.0029084 to 0.00290841
Heightened Def Con from 0.0029142 to 0.00291421
Heightened Def Con from 0.00292 to 0.00292001
Heightened Def Con from 0.0029258 to 0.00292581
Heightened Def Con from 0.0029316 to 0.00293161
Heightened Def Con from 0.0029374 to 0.00293741
Heightened Def Con from 0.0029432 to 0.00294321
Heightened Def Con from 0.002949 to 0.00294901
Heightened Def Con from 0.0029548 to 0.00295481
Heightened Def Con from 0.0029606 to 0.00296061
Heightened Def Con from 0.0029664 to 0.00296641
Heightened Def Con from 0.0029722 to 0.00297221
Heightened Def Con from 0.002978 to 0.00297801
Heightened Def Con from 0.0029838 to 0.00298381
Heightened Def Con from 0.0029872 to 0.0029872
Heightened Def Con from 0.0029896 to 0.00298961
Heightened Def Con from 0.0029954 to 0.00299541
Heightened Def Con from 0.0030012 to 0.00300121
Heightened Def Con from 0.0030128 to 0.00301281
Heightened Def Con from 0.0030186 to 0.00301861
Heightened Def Con from 0.0030244 to 0.00302441
Heightened Def Con from 0.0030302 to 0.00303021
Heightened Def Con from 0.003036 to 0.00303601
Heightened Def Con from 0.0030418 to 0.00304181
Heightened Def Con from 0.0030592 to 0.00305921
Heightened Def Con from 0.003065 to 0.00306501
Heightened Def Con from 0.0030708 to 0.00307081
Heightened Def Con from 0.0030766 to 0.00307661
Heightened Def Con from 0.0030882 to 0.00308821
Heightened Def Con from 0.003094 to 0.00309401
Heightened Def Con from 0.0030998 to 0.00309981
Heightened Def Con from 0.0031056 to 0.00310561
Heightened Def Con from 0.0031114 to 0.00311141
Heightened Def Con from 0.0031172 to 0.00311721
Heightened Def Con from 0.003123 to 0.00312301
Heightened Def Con from 0.0031288 to 0.00312881
Heightened Def Con from 0.0031346 to 0.00313461
Heightened Def Con from 0.0031462 to 0.00314621
Heightened Def Con from 0.003152 to 0.00315201
Heightened Def Con from 0.0031578 to 0.00315781
Heightened Def Con from 0.0031694 to 0.00316941
Heightened Def Con from 0.0031752 to 0.00317521
Heightened Def Con from 0.003181 to 0.00318101
Heightened Def Con from 0.0031868 to 0.00318681
Heightened Def Con from 0.0031926 to 0.00319261
Heightened Def Con from 0.0031984 to 0.00319841
Heightened Def Con from 0.0032042 to 0.00320421
Heightened Def Con from 0.00321 to 0.00321001
Heightened Def Con from 0.0032158 to 0.00321581
Heightened Def Con from 0.0032216 to 0.00322161
Heightened Def Con from 0.0032274 to 0.00322741
Heightened Def Con from 0.003239 to 0.00323901
Heightened Def Con from 0.0032506 to 0.00325061
Heightened Def Con from 0.0032564 to 0.00325641
Heightened Def Con from 0.0032622 to 0.00326221
Heightened Def Con from 0.003268 to 0.00326801
Heightened Def Con from 0.0032738 to 0.00327381
Heightened Def Con from 0.0032796 to 0.00327961
Heightened Def Con from 0.0032854 to 0.00328541
Heightened Def Con from 0.0032912 to 0.00329121
Heightened Def Con from 0.003297 to 0.00329701
Heightened Def Con from 0.0033028 to 0.00330281
Heightened Def Con from 0.0033086 to 0.00330861
Heightened Def Con from 0.0033144 to 0.00331441
Heightened Def Con from 0.0033178 to 0.0033178
Heightened Def Con from 0.0033202 to 0.00332021
Heightened Def Con from 0.003326 to 0.00332601
Heightened Def Con from 0.0033318 to 0.00333181
Heightened Def Con from 0.0033434 to 0.00334341
Heightened Def Con from 0.0033492 to 0.00334921
Heightened Def Con from 0.003355 to 0.00335501
Heightened Def Con from 0.0033608 to 0.00336081
Heightened Def Con from 0.0033666 to 0.00336661
Heightened Def Con from 0.0033724 to 0.00337241
Heightened Def Con from 0.0033782 to 0.00337821
Heightened Def Con from 0.0033816 to 0.0033816
Heightened Def Con from 0.0033898 to 0.00338981
Heightened Def Con from 0.0033956 to 0.00339561
Heightened Def Con from 0.0034014 to 0.00340141
Heightened Def Con from 0.0034072 to 0.00340721
Heightened Def Con from 0.003413 to 0.00341301
Heightened Def Con from 0.0034188 to 0.00341881
Heightened Def Con from 0.0034246 to 0.00342461
Heightened Def Con from 0.0034304 to 0.00343041
Heightened Def Con from 0.0034362 to 0.00343621
Heightened Def Con from 0.003442 to 0.00344201
Heightened Def Con from 0.0034478 to 0.00344781
Heightened Def Con from 0.0034536 to 0.00345361
Heightened Def Con from 0.00345919 to 0.00345919
Heightened Def Con from 0.0034594 to 0.00345941
Heightened Def Con from 0.0034628 to 0.0034628
Heightened Def Con from 0.0034652 to 0.00346521
Heightened Def Con from 0.003471 to 0.00347101
Heightened Def Con from 0.0034768 to 0.00347681
Heightened Def Con from 0.0034826 to 0.00348261
Heightened Def Con from 0.0034884 to 0.00348841
Heightened Def Con from 0.0034942 to 0.00349421
Heightened Def Con from 0.0035 to 0.00350001
Heightened Def Con from 0.0035058 to 0.00350581
Heightened Def Con from 0.0035116 to 0.00351161
Heightened Def Con from 0.0035174 to 0.00351741
Heightened Def Con from 0.0035232 to 0.00352321
Heightened Def Con from 0.0035266 to 0.0035266
Heightened Def Con from 0.0035348 to 0.00353481
Heightened Def Con from 0.0035382 to 0.0035382
Heightened Def Con from 0.0035406 to 0.00354061
Heightened Def Con from 0.0035464 to 0.00354641
Heightened Def Con from 0.003558 to 0.00355801
Heightened Def Con from 0.0035638 to 0.00356381
Heightened Def Con from 0.0035754 to 0.00357541
Heightened Def Con from 0.0035812 to 0.00358121
Heightened Def Con from 0.003587 to 0.00358701
Heightened Def Con from 0.0035928 to 0.00359281
Heightened Def Con from 0.0036044 to 0.00360441
Heightened Def Con from 0.0036102 to 0.00361021
Heightened Def Con from 0.003616 to 0.00361601
Heightened Def Con from 0.0036218 to 0.00362181
Heightened Def Con from 0.0036334 to 0.00363341
Heightened Def Con from 0.003645 to 0.00364501
Heightened Def Con from 0.0036508 to 0.00365081
Heightened Def Con from 0.0036566 to 0.00365661
Heightened Def Con from 0.0036624 to 0.00366241
Heightened Def Con from 0.0036682 to 0.00366821
Heightened Def Con from 0.003674 to 0.00367401
Heightened Def Con from 0.0036798 to 0.00367981
Heightened Def Con from 0.0036856 to 0.00368561
Heightened Def Con from 0.0036914 to 0.00369141
Heightened Def Con from 0.0036972 to 0.00369721
Heightened Def Con from 0.003703 to 0.00370301
Heightened Def Con from 0.0037088 to 0.00370881
Heightened Def Con from 0.0037146 to 0.00371461
Heightened Def Con from 0.0037204 to 0.00372041
Heightened Def Con from 0.00372594 to 0.00372594
Heightened Def Con from 0.0037262 to 0.00372621
Heightened Def Con from 0.0037296 to 0.0037296
Heightened Def Con from 0.003732 to 0.00373201
Heightened Def Con from 0.0037378 to 0.00373781
Heightened Def Con from 0.0037436 to 0.00374361
Heightened Def Con from 0.0037494 to 0.00374941
Heightened Def Con from 0.0037552 to 0.00375521
Heightened Def Con from 0.003761 to 0.00376101
Heightened Def Con from 0.0037668 to 0.00376681
Heightened Def Con from 0.0037726 to 0.00377261
Heightened Def Con from 0.0037784 to 0.00377841
Heightened Def Con from 0.00379 to 0.00379001
Heightened Def Con from 0.0037958 to 0.00379581
Heightened Def Con from 0.0038016 to 0.00380161
Heightened Def Con from 0.0038074 to 0.00380741
Heightened Def Con from 0.0038132 to 0.00381321
Heightened Def Con from 0.003819 to 0.00381901
Heightened Def Con from 0.0038306 to 0.00383061
Heightened Def Con from 0.0038364 to 0.00383641
Heightened Def Con from 0.0038422 to 0.00384221
Heightened Def Con from 0.0038456 to 0.0038456
Heightened Def Con from 0.003848 to 0.00384801
Heightened Def Con from 0.0038538 to 0.00385381
Heightened Def Con from 0.0038572 to 0.0038572
Heightened Def Con from 0.0038596 to 0.00385961
Heightened Def Con from 0.0038654 to 0.00386541
Heightened Def Con from 0.0038712 to 0.00387121
Heightened Def Con from 0.003877 to 0.00387701
Heightened Def Con from 0.0038828 to 0.00388281
Heightened Def Con from 0.0038862 to 0.0038862
Heightened Def Con from 0.0038886 to 0.00388861
Heightened Def Con from 0.003906 to 0.00390601
Heightened Def Con from 0.0039118 to 0.00391181
Heightened Def Con from 0.0039176 to 0.00391761
Heightened Def Con from 0.0039234 to 0.00392341
Heightened Def Con from 0.0039292 to 0.00392921
Heightened Def Con from 0.003935 to 0.00393501
Heightened Def Con from 0.0039408 to 0.00394081
Heightened Def Con from 0.0039466 to 0.00394661
Heightened Def Con from 0.0039524 to 0.00395241
Heightened Def Con from 0.0039582 to 0.00395821
Heightened Def Con from 0.0039698 to 0.00396981
Heightened Def Con from 0.0039756 to 0.00397561
Heightened Def Con from 0.0039814 to 0.00398141
Heightened Def Con from 0.0039872 to 0.00398721
Heightened Def Con from 0.003993 to 0.00399301
Heightened Def Con from 0.0039988 to 0.00399881
Heightened Def Con from 0.0040046 to 0.00400461
Heightened Def Con from 0.0040104 to 0.00401041
Heightened Def Con from 0.0040162 to 0.00401621
Heightened Def Con from 0.0040394 to 0.00403941
Heightened Def Con from 0.0040452 to 0.00404521
Heightened Def Con from 0.004051 to 0.00405101
Heightened Def Con from 0.0040568 to 0.00405681
Heightened Def Con from 0.0040626 to 0.00406261
Heightened Def Con from 0.0040684 to 0.00406841
Heightened Def Con from 0.0040742 to 0.00407421
Heightened Def Con from 0.00408 to 0.00408001
Heightened Def Con from 0.0040858 to 0.00408581
Heightened Def Con from 0.0040916 to 0.00409161
Heightened Def Con from 0.004095 to 0.004095
Heightened Def Con from 0.0040974 to 0.00409741
Heightened Def Con from 0.00410299 to 0.00410299
Heightened Def Con from 0.0041032 to 0.00410321
Heightened Def Con from 0.0041148 to 0.00411481
Heightened Def Con from 0.0041206 to 0.00412061
Heightened Def Con from 0.0041264 to 0.00412641
Heightened Def Con from 0.0041322 to 0.00413221
Heightened Def Con from 0.004138 to 0.00413801
Heightened Def Con from 0.0041438 to 0.00414381
Heightened Def Con from 0.0041496 to 0.00414961
Heightened Def Con from 0.0041554 to 0.00415541
Heightened Def Con from 0.0041612 to 0.00416121
Heightened Def Con from 0.0041728 to 0.00417281
Heightened Def Con from 0.0041844 to 0.00418441
Heightened Def Con from 0.0041878 to 0.0041878
Heightened Def Con from 0.0041902 to 0.00419021
Heightened Def Con from 0.0042076 to 0.00420761
Heightened Def Con from 0.0042134 to 0.00421341
Heightened Def Con from 0.0042192 to 0.00421921
Heightened Def Con from 0.004225 to 0.00422501
Heightened Def Con from 0.00423639 to 0.00423639
Heightened Def Con from 0.0042366 to 0.00423661
Heightened Def Con from 0.0042424 to 0.00424241
Heightened Def Con from 0.0042482 to 0.00424821
Heightened Def Con from 0.004254 to 0.00425401
Heightened Def Con from 0.0042598 to 0.00425981
Heightened Def Con from 0.0042656 to 0.00426561
Heightened Def Con from 0.0042714 to 0.00427141
Heightened Def Con from 0.0042772 to 0.00427721
Heightened Def Con from 0.004283 to 0.00428301
Heightened Def Con from 0.0042946 to 0.00429461
Heightened Def Con from 0.004312 to 0.00431201
Heightened Def Con from 0.0043178 to 0.00431781
Heightened Def Con from 0.0043236 to 0.00432361
Heightened Def Con from 0.0043294 to 0.00432941
Heightened Def Con from 0.0043352 to 0.00433521
Heightened Def Con from 0.0043468 to 0.00434681
Heightened Def Con from 0.0043526 to 0.00435261
Heightened Def Con from 0.0043584 to 0.00435841
Heightened Def Con from 0.0043618 to 0.0043618
Heightened Def Con from 0.0043642 to 0.00436421
Heightened Def Con from 0.00437 to 0.00437001
Heightened Def Con from 0.0043758 to 0.00437581
Heightened Def Con from 0.0043874 to 0.00438741
Heightened Def Con from 0.0043932 to 0.00439321
Heightened Def Con from 0.004399 to 0.00439901
Heightened Def Con from 0.0044048 to 0.00440481
Heightened Def Con from 0.0044106 to 0.00441061
Heightened Def Con from 0.0044164 to 0.00441641
Heightened Def Con from 0.004428 to 0.00442801
Heightened Def Con from 0.0044396 to 0.00443961
Heightened Def Con from 0.0044454 to 0.00444541
Heightened Def Con from 0.0044512 to 0.00445121
Heightened Def Con from 0.004457 to 0.00445701
Heightened Def Con from 0.0044628 to 0.00446281
Heightened Def Con from 0.0044686 to 0.00446861
Heightened Def Con from 0.0044744 to 0.00447441
Heightened Def Con from 0.004486 to 0.00448601
Heightened Def Con from 0.0044918 to 0.00449181
Heightened Def Con from 0.0045034 to 0.00450341
Heightened Def Con from 0.0045092 to 0.00450921
Heightened Def Con from 0.004515 to 0.00451501
Heightened Def Con from 0.0045208 to 0.00452081
Heightened Def Con from 0.0045266 to 0.00452661
Heightened Def Con from 0.0045324 to 0.00453241
Heightened Def Con from 0.0045382 to 0.00453821
Heightened Def Con from 0.004544 to 0.00454401
Heightened Def Con from 0.0045498 to 0.00454981
Heightened Def Con from 0.0045556 to 0.00455561
Heightened Def Con from 0.0045614 to 0.00456141
Heightened Def Con from 0.004573 to 0.00457301
Heightened Def Con from 0.0045788 to 0.00457881
Heightened Def Con from 0.0045846 to 0.00458461
Heightened Def Con from 0.0045904 to 0.00459041
Heightened Def Con from 0.0045962 to 0.00459621
Heightened Def Con from 0.004602 to 0.00460201
Heightened Def Con from 0.0046078 to 0.00460781
Heightened Def Con from 0.0046194 to 0.00461941
Heightened Def Con from 0.0046252 to 0.00462521
Heightened Def Con from 0.004631 to 0.00463101
Heightened Def Con from 0.0046368 to 0.00463681
Heightened Def Con from 0.0046402 to 0.0046402
Heightened Def Con from 0.0046426 to 0.00464261
Heightened Def Con from 0.0046484 to 0.00464841
Heightened Def Con from 0.0046542 to 0.00465421
Heightened Def Con from 0.00466 to 0.00466001
Heightened Def Con from 0.0046658 to 0.00466581
Heightened Def Con from 0.0046774 to 0.00467741
Heightened Def Con from 0.0046832 to 0.00468321
Heightened Def Con from 0.004689 to 0.00468901
Heightened Def Con from 0.0047006 to 0.00470061
Heightened Def Con from 0.0047064 to 0.00470641
Heightened Def Con from 0.0047122 to 0.00471221
Heightened Def Con from 0.0047238 to 0.00472381
Heightened Def Con from 0.0047296 to 0.00472961
Heightened Def Con from 0.00472961 to 0.00472961
Heightened Def Con from 0.0047354 to 0.00473541
Heightened Def Con from 0.0047412 to 0.00474121
Heightened Def Con from 0.004747 to 0.00474701
Heightened Def Con from 0.0047528 to 0.00475281
Heightened Def Con from 0.0047586 to 0.00475861
Heightened Def Con from 0.0047644 to 0.00476441
Heightened Def Con from 0.0047702 to 0.00477021
Heightened Def Con from 0.004776 to 0.00477601
Heightened Def Con from 0.0047818 to 0.00478181
Heightened Def Con from 0.0047876 to 0.00478761
Heightened Def Con from 0.0047992 to 0.00479921
Heightened Def Con from 0.004805 to 0.00480501
Heightened Def Con from 0.0048166 to 0.00481661
Heightened Def Con from 0.0048224 to 0.00482241
Heightened Def Con from 0.0048282 to 0.00482821
Heightened Def Con from 0.004834 to 0.00483401
Heightened Def Con from 0.0048398 to 0.00483981
Heightened Def Con from 0.0048432 to 0.0048432
Heightened Def Con from 0.0048572 to 0.00485721
Heightened Def Con from 0.0048606 to 0.0048606
Heightened Def Con from 0.004863 to 0.00486301
Heightened Def Con from 0.0048688 to 0.00486881
Heightened Def Con from 0.0048804 to 0.00488041
Heightened Def Con from 0.0048862 to 0.00488621
Heightened Def Con from 0.004892 to 0.00489201
Heightened Def Con from 0.0048978 to 0.00489781
Heightened Def Con from 0.0049036 to 0.00490361
Heightened Def Con from 0.0049094 to 0.00490941
Heightened Def Con from 0.0049152 to 0.00491521
Heightened Def Con from 0.004921 to 0.00492101
Heightened Def Con from 0.0049268 to 0.00492681
Heightened Def Con from 0.004936 to 0.004936
Heightened Def Con from 0.0049384 to 0.00493841
Heightened Def Con from 0.0049442 to 0.00494421
Heightened Def Con from 0.0049558 to 0.00495581
Heightened Def Con from 0.0049616 to 0.00496161
Heightened Def Con from 0.0049674 to 0.00496741
Heightened Def Con from 0.0049732 to 0.00497321
Heightened Def Con from 0.004979 to 0.00497901
Heightened Def Con from 0.0049848 to 0.00498481
Heightened Def Con from 0.0049906 to 0.00499061
Heightened Def Con from 0.0049964 to 0.00499641
Total elapsed time: 20.056 seconds.

