Circuit: * C:\Users\x\repo\development\loeti\hardware\switchmode.asc

Limiting rise time of source v2 to 2e-006
Limiting fall time of source v2 to 2e-006
Direct Newton iteration for .op point succeeded.

Date: Sun May 10 12:30:04 2020
Total elapsed time: 0.901 seconds.

tnom = 27
temp = 27
method = modified trap
totiter = 221237
traniter = 221201
tranpoints = 61574
accept = 44213
rejected = 17361
matrix size = 21
fillins = 20
solver = Normal
Matrix Compiler1: 2.79 KB object code size  0.5/0.3/[0.2]
Matrix Compiler2: 2.15 KB object code size  0.2/0.4/[0.2]

