Circuit: * D:\git\electronics\loeti\hardware\switchmode.asc

Limiting rise time of source v2 to 2e-007
Limiting fall time of source v2 to 2e-007
Direct Newton iteration failed to find .op point.  (Use ".option noopiter" to skip.)
Starting Gmin stepping
Gmin = 10
Gmin = 1.07374
Gmin = 0.115292
Gmin = 0.0123794
Gmin = 0.00132923
vernier = 0.5
vernier = 0.25
vernier = 0.125
vernier = 0.0625
Gmin = 0.00100083
vernier = 0.03125
vernier = 0.015625
vernier = 0.0078125
vernier = 0.00390625
vernier = 0.00195313
Gmin = 0.00100083
vernier = 0.000976563
vernier = 0.000488281
Gmin = 0
Gmin stepping succeeded in finding the operating point.

Heightened Def Con from 9.43949e-005 to 9.43979e-005
Heightened Def Con from 0.000690158 to 0.000690162
Heightened Def Con from 0.00108113 to 0.00108113
Heightened Def Con from 0.0012652 to 0.0012652
Heightened Def Con from 0.00165949 to 0.00165949
Heightened Def Con from 0.00170212 to 0.00170213
Heightened Def Con from 0.00170213 to 0.00170213
Heightened Def Con from 0.0017482 to 0.0017482
Heightened Def Con from 0.00179416 to 0.00179416
Heightened Def Con from 0.0017942 to 0.0017942
Heightened Def Con from 0.00188612 to 0.00188613
Heightened Def Con from 0.00188613 to 0.00188613
Heightened Def Con from 0.0019552 to 0.0019552
Heightened Def Con from 0.00204712 to 0.00204713
Heightened Def Con from 0.00204713 to 0.00204713
Heightened Def Con from 0.00209649 to 0.00209649
Heightened Def Con from 0.002484 to 0.002484
Heightened Def Con from 0.00262549 to 0.0026255
Heightened Def Con from 0.0026472 to 0.0026472
Heightened Def Con from 0.00269116 to 0.00269116
Heightened Def Con from 0.0030132 to 0.0030132
Heightened Def Con from 0.00317416 to 0.00317416
Heightened Def Con from 0.003519 to 0.003519
Heightened Def Con from 0.0035192 to 0.0035192
Heightened Def Con from 0.0035652 to 0.0035652
Heightened Def Con from 0.00368 to 0.00368
Heightened Def Con from 0.003726 to 0.003726
Heightened Def Con from 0.00379512 to 0.00379513
Heightened Def Con from 0.00423212 to 0.00423213
Heightened Def Con from 0.00423213 to 0.00423213
Heightened Def Con from 0.0044622 to 0.0044622
Heightened Def Con from 0.004485 to 0.004485
Heightened Def Con from 0.004531 to 0.004531
Heightened Def Con from 0.00462312 to 0.00462313
Heightened Def Con from 0.00462313 to 0.00462313
Heightened Def Con from 0.004853 to 0.004853

Date: Fri May 07 20:46:06 2021
Total elapsed time: 16.943 seconds.

tnom = 27
temp = 27
method = modified trap
totiter = 692994
traniter = 691464
tranpoints = 197393
accept = 138862
rejected = 58567
matrix size = 157
fillins = 274
solver = Normal
Thread vector: 12.6/8.2[2] 5.1/3.5[2] 3.4/1.9[2] 0.6/0.8[1]  2592/500
Matrix Compiler1: 27.61 KB object code size  5.5/3.0/[1.8]
Matrix Compiler2: 18.42 KB object code size  2.6/2.4/[1.2]

